goiania_leste_dss/TR3/CTMT_5002410.dss
! ==============================================================================
! ALIMENTADOR CTMT_5002410 - GOIANIA LESTE-2
! Subestacao: Trafo TR3 (GOL-S-TRF-TR3) | Barra MT: 4630 -> PAC_INI: 84799255002410
! ==============================================================================

! 1. Disjuntor de Saida MT do Alimentador
new line.DJ_5002410 phases=3 bus1=4630 bus2=84799255002410 switch=y r1=1e-4 x1=1e-4 length=0.001 units=km

! 2. Linhas de Media Tensao (MT)
new line.52878993 phases=3 bus1=80474315002410.1.2.3 bus2=80474325002410.1.2.3 r1=0.975 x1=0.47 length=0.017244 units=km normamps=152.0
new line.52878996 phases=3 bus1=80474325002410.1.2.3 bus2=80474445002410.1.2.3 r1=1.551 x1=0.49 length=0.034433 units=km normamps=114.0
new line.52878997 phases=3 bus1=80474445002410.1.2.3 bus2=80474435002410.1.2.3 r1=1.551 x1=0.49 length=0.032831 units=km normamps=114.0
new line.52878998 phases=3 bus1=80474455002410.1.2.3 bus2=80474445002410.1.2.3 r1=0.975 x1=0.47 length=0.006276 units=km normamps=152.0
new line.52878999 phases=3 bus1=80474465002410.1.2.3 bus2=80474315002410.1.2.3 r1=0.975 x1=0.47 length=0.040938 units=km normamps=152.0
new line.52879000 phases=3 bus1=80474475002410.1.2.3 bus2=80474465002410.1.2.3 r1=0.975 x1=0.47 length=0.019535 units=km normamps=152.0
new line.52879001 phases=3 bus1=80474485002410.1.2.3 bus2=80474475002410.1.2.3 r1=0.975 x1=0.47 length=0.039886 units=km normamps=152.0
new line.52879002 phases=3 bus1=80474495002410.1.2.3 bus2=80474485002410.1.2.3 r1=0.975 x1=0.47 length=0.02898 units=km normamps=152.0
new line.52879003 phases=3 bus1=80474435002410.1.2.3 bus2=80474505002410.1.2.3 r1=1.551 x1=0.49 length=0.039912 units=km normamps=114.0
new line.52879004 phases=3 bus1=80474505002410.1.2.3 bus2=80474515002410B.1.2.3 r1=1.551 x1=0.49 length=0.031716 units=km normamps=114.0
new line.52879005 phases=3 bus1=80474515002410.1.2.3 bus2=80474525002410.1.2.3 r1=1.551 x1=0.49 length=0.035431 units=km normamps=114.0
new line.52879006 phases=3 bus1=80474525002410.1.2.3 bus2=80474535002410.1.2.3 r1=1.551 x1=0.49 length=0.013202 units=km normamps=114.0
new line.52879007 phases=3 bus1=80473395002410.1.2.3 bus2=80474535002410.1.2.3 r1=1.551 x1=0.49 length=0.037768 units=km normamps=114.0
new line.52879008 phases=3 bus1=80474535002410.1.2.3 bus2=80474545002410.1.2.3 r1=1.551 x1=0.49 length=0.031798 units=km normamps=114.0
new line.52879009 phases=3 bus1=80474545002410B.1.2.3 bus2=80472755002410.1.2.3 r1=0.975 x1=0.47 length=0.01345 units=km normamps=152.0
new line.52879010 phases=3 bus1=80474545002410.1.2.3 bus2=80474555002410.1.2.3 r1=1.551 x1=0.49 length=0.023315 units=km normamps=114.0
new line.52879011 phases=3 bus1=80474555002410.1.2.3 bus2=80474565002410.1.2.3 r1=1.551 x1=0.49 length=0.018292 units=km normamps=114.0
new line.52879014 phases=3 bus1=80474605002410.1.2.3 bus2=80474625002410.1.2.3 r1=1.551 x1=0.49 length=0.03285 units=km normamps=114.0
new line.52879015 phases=3 bus1=80474625002410.1.2.3 bus2=92513075002410.1.2.3 r1=1.551 x1=0.49 length=0.009663 units=km normamps=114.0
new line.52879016 phases=3 bus1=80474635002410.1.2.3 bus2=80474645002410.1.2.3 r1=1.551 x1=0.49 length=0.029868 units=km normamps=114.0
new line.52879017 phases=3 bus1=80474645002410.1.2.3 bus2=80474665002410.1.2.3 r1=1.551 x1=0.49 length=0.015742 units=km normamps=114.0
new line.52879018 phases=3 bus1=80474675002410.1.2.3 bus2=80474665002410.1.2.3 r1=1.551 x1=0.49 length=0.006869 units=km normamps=114.0
new line.52879019 phases=3 bus1=80474665002410.1.2.3 bus2=80474685002410.1.2.3 r1=1.551 x1=0.49 length=0.022864 units=km normamps=114.0
new line.52879020 phases=3 bus1=80474705002410.1.2.3 bus2=96641925002410.1.2.3 r1=1.551 x1=0.49 length=0.010169 units=km normamps=114.0
new line.52879021 phases=3 bus1=80474685002410B.1.2.3 bus2=80474705002410.1.2.3 r1=1.551 x1=0.49 length=0.028768 units=km normamps=114.0
new line.52879045 phases=3 bus1=80472675002410.1.2.3 bus2=80472665002410.1.2.3 r1=0.975 x1=0.47 length=0.011649 units=km normamps=152.0
new line.52879046 phases=3 bus1=80472685002410.1.2.3 bus2=80472665002410.1.2.3 r1=0.975 x1=0.47 length=0.011594 units=km normamps=152.0
new line.52879047 phases=3 bus1=80472695002410.1.2.3 bus2=80472675002410.1.2.3 r1=0.975 x1=0.47 length=0.005026 units=km normamps=152.0
new line.52879048 phases=3 bus1=80472705002410.1.2.3 bus2=80472675002410.1.2.3 r1=0.975 x1=0.47 length=0.022333 units=km normamps=152.0
new line.52879058 phases=3 bus1=80473235002410.1.2.3 bus2=96920815002410.1.2.3 r1=0.195 x1=0.4 length=0.005918 units=km normamps=419.0
new line.52879059 phases=3 bus1=80473245002410.1.2.3 bus2=80473235002410.1.2.3 r1=0.195 x1=0.4 length=0.028792 units=km normamps=419.0
new line.52879060 phases=3 bus1=80474875002410.1.2.3 bus2=80474485002410.1.2.3 r1=0.975 x1=0.47 length=0.024821 units=km normamps=152.0
new line.52879061 phases=3 bus1=80473265002410B.1.2.3 bus2=80473275002410.1.2.3 r1=1.551 x1=0.49 length=0.025564 units=km normamps=114.0
new line.52879062 phases=3 bus1=80473275002410.1.2.3 bus2=80473285002410.1.2.3 r1=1.551 x1=0.49 length=0.032929 units=km normamps=114.0
new line.52879063 phases=3 bus1=80473295002410.1.2.3 bus2=80473285002410.1.2.3 r1=1.551 x1=0.49 length=0.00715 units=km normamps=114.0
new line.52879064 phases=3 bus1=80473275002410.1.2.3 bus2=80473305002410.1.2.3 r1=1.551 x1=0.49 length=0.040074 units=km normamps=114.0
new line.52879065 phases=3 bus1=80473305002410.1.2.3 bus2=80473315002410.1.2.3 r1=1.551 x1=0.49 length=0.016393 units=km normamps=114.0
new line.52879066 phases=3 bus1=80473325002410.1.2.3 bus2=80473315002410.1.2.3 r1=1.551 x1=0.49 length=0.007209 units=km normamps=114.0
new line.52879067 phases=3 bus1=80473305002410.1.2.3 bus2=80473335002410.1.2.3 r1=1.551 x1=0.49 length=0.034601 units=km normamps=114.0
new line.52879068 phases=3 bus1=80473345002410.1.2.3 bus2=80473335002410.1.2.3 r1=1.551 x1=0.49 length=0.013859 units=km normamps=114.0
new line.52879069 phases=3 bus1=80473335002410.1.2.3 bus2=80473355002410.1.2.3 r1=1.551 x1=0.49 length=0.02894 units=km normamps=114.0
new line.52879070 phases=3 bus1=80473355002410.1.2.3 bus2=80473365002410.1.2.3 r1=1.551 x1=0.49 length=0.013332 units=km normamps=114.0
new line.52879071 phases=3 bus1=80473375002410.1.2.3 bus2=80473365002410.1.2.3 r1=1.551 x1=0.49 length=0.007993 units=km normamps=114.0
new line.52879072 phases=3 bus1=80473365002410.1.2.3 bus2=80473385002410.1.2.3 r1=1.551 x1=0.49 length=0.022428 units=km normamps=114.0
new line.52879073 phases=3 bus1=80473385002410.1.2.3 bus2=80473395002410.1.2.3 r1=1.551 x1=0.49 length=0.021978 units=km normamps=114.0
new line.52879097 phases=3 bus1=80472715002410.1.2.3 bus2=80472705002410.1.2.3 r1=0.975 x1=0.47 length=0.031049 units=km normamps=152.0
new line.52879098 phases=3 bus1=80472725002410.1.2.3 bus2=80472715002410.1.2.3 r1=0.975 x1=0.47 length=0.008337 units=km normamps=152.0
new line.52879105 phases=3 bus1=80472735002410.1.2.3 bus2=80472715002410.1.2.3 r1=0.975 x1=0.47 length=0.023318 units=km normamps=152.0
new line.52879106 phases=3 bus1=80472745002410.1.2.3 bus2=80472735002410.1.2.3 r1=0.975 x1=0.47 length=0.01631 units=km normamps=152.0
new line.52879107 phases=3 bus1=80472755002410.1.2.3 bus2=80472735002410.1.2.3 r1=0.975 x1=0.47 length=0.023318 units=km normamps=152.0
new line.52879150 phases=3 bus1=80474705002410.1.2.3 bus2=80479375002410.1.2.3 r1=1.551 x1=0.49 length=0.011629 units=km normamps=114.0
new line.52879168 phases=3 bus1=80474505002410.1.2.3 bus2=80474985002410.1.2.3 r1=1.551 x1=0.49 length=0.007993 units=km normamps=114.0
new line.52890052 phases=3 bus1=80550925002410.1.2.3 bus2=80473245002410B.1.2.3 r1=0.195 x1=0.4 length=0.008432 units=km normamps=419.0
new line.52890053 phases=3 bus1=80473255002410.1.2.3 bus2=80550925002410.1.2.3 r1=0.195 x1=0.4 length=0.034974 units=km normamps=419.0
new line.52890054 phases=3 bus1=80550915002410.1.2.3 bus2=80550935002410.1.2.3 r1=0.195 x1=0.4 length=0.032203 units=km normamps=419.0
new line.52890058 phases=3 bus1=80550915002410B.1.2.3 bus2=80550925002410.1.2.3 r1=0.195 x1=0.4 length=0.009234 units=km normamps=419.0
new line.52890059 phases=3 bus1=80550335002410.1.2.3 bus2=80550975002410.1.2.3 r1=0.195 x1=0.4 length=0.04888 units=km normamps=419.0
new line.52890060 phases=3 bus1=80550975002410.1.2.3 bus2=80550985002410.1.2.3 r1=0.195 x1=0.4 length=0.032497 units=km normamps=419.0
new line.52890062 phases=3 bus1=80551015002410.1.2.3 bus2=80551005002410.1.2.3 r1=0.975 x1=0.47 length=0.044666 units=km normamps=152.0
new line.52890063 phases=3 bus1=80551025002410.1.2.3 bus2=80551015002410.1.2.3 r1=0.975 x1=0.47 length=0.033308 units=km normamps=152.0
new line.52890064 phases=3 bus1=80551035002410.1.2.3 bus2=80551025002410.1.2.3 r1=0.975 x1=0.47 length=0.006634 units=km normamps=152.0
new line.52890065 phases=3 bus1=80551045002410.1.2.3 bus2=80551025002410.1.2.3 r1=0.975 x1=0.47 length=0.028522 units=km normamps=152.0
new line.52890066 phases=3 bus1=80551055002410.1.2.3 bus2=80551045002410.1.2.3 r1=0.975 x1=0.47 length=0.024574 units=km normamps=152.0
new line.52890067 phases=3 bus1=80551065002410.1.2.3 bus2=80551055002410.1.2.3 r1=0.975 x1=0.47 length=0.006634 units=km normamps=152.0
new line.52890068 phases=3 bus1=80551005002410.1.2.3 bus2=80551175002410B.1.2.3 r1=0.975 x1=0.47 length=0.019012 units=km normamps=152.0
new line.52890069 phases=3 bus1=80551175002410.1.2.3 bus2=80551185002410.1.2.3 r1=0.195 x1=0.4 length=0.026841 units=km normamps=419.0
new line.52890070 phases=3 bus1=80550985002410.1.2.3 bus2=80551175002410.1.2.3 r1=0.195 x1=0.4 length=0.037209 units=km normamps=419.0
new line.52890071 phases=3 bus1=80551185002410.1.2.3 bus2=80551195002410.1.2.3 r1=0.195 x1=0.4 length=0.025564 units=km normamps=419.0
new line.52890072 phases=3 bus1=80551195002410.1.2.3 bus2=80551205002410.1.2.3 r1=0.195 x1=0.4 length=0.009701 units=km normamps=419.0
new line.52890075 phases=3 bus1=80554185002410.1.2.3 bus2=80552005002410.1.2.3 r1=0.195 x1=0.4 length=0.006548 units=km normamps=419.0
new line.52890076 phases=3 bus1=80552335002410.1.2.3 bus2=80554195002410.1.2.3 r1=1.551 x1=0.49 length=0.026762 units=km normamps=114.0
new line.52890077 phases=3 bus1=80550925002410.1.2.3 bus2=80551205002410.1.2.3 r1=0.195 x1=0.4 length=0.027523 units=km normamps=419.0
new line.52890078 phases=3 bus1=80551205002410.1.2.3 bus2=80551215002410.1.2.3 r1=0.195 x1=0.4 length=0.012648 units=km normamps=419.0
new line.52890079 phases=3 bus1=80551215002410B.1.2.3 bus2=80551225002410.1.2.3 r1=1.564 x1=0.51 length=0.031367 units=km normamps=120.0
new line.52890080 phases=3 bus1=80551225002410.1.2.3 bus2=80551235002410.1.2.3 r1=1.564 x1=0.51 length=0.033006 units=km normamps=120.0
new line.52890083 phases=3 bus1=80551255002410.1.2.3 bus2=80551265002410.1.2.3 r1=0.975 x1=0.47 length=0.039189 units=km normamps=152.0
new line.52890085 phases=3 bus1=80551205002410.1.2.3 bus2=80551385002410.1.2.3 r1=0.195 x1=0.4 length=0.042579 units=km normamps=419.0
new line.52890129 phases=3 bus1=80551605002410.1.2.3 bus2=80550625002410.1.2.3 r1=0.195 x1=0.4 length=0.038928 units=km normamps=419.0
new line.52890130 phases=3 bus1=80551615002410B.1.2.3 bus2=94243485002410.1.2.3 r1=0.195 x1=0.4 length=0.016839 units=km normamps=419.0
new line.52890131 phases=3 bus1=80551625002410.1.2.3 bus2=80551615002410.1.2.3 r1=0.195 x1=0.4 length=0.047064 units=km normamps=419.0
new line.52890132 phases=3 bus1=80551635002410.1.2.3 bus2=80551625002410.1.2.3 r1=0.195 x1=0.4 length=0.025554 units=km normamps=419.0
new line.52890133 phases=3 bus1=80551645002410.1.2.3 bus2=80551635002410.1.2.3 r1=0.195 x1=0.4 length=0.032027 units=km normamps=419.0
new line.52890134 phases=3 bus1=80551655002410.1.2.3 bus2=80551645002410.1.2.3 r1=0.195 x1=0.4 length=0.007993 units=km normamps=419.0
new line.52890135 phases=3 bus1=80551665002410.1.2.3 bus2=80551645002410.1.2.3 r1=0.195 x1=0.4 length=0.032738 units=km normamps=419.0
new line.52890136 phases=3 bus1=80551675002410.1.2.3 bus2=80551665002410.1.2.3 r1=0.195 x1=0.4 length=0.02717 units=km normamps=419.0
new line.52890137 phases=3 bus1=80551685002410.1.2.3 bus2=80551675002410.1.2.3 r1=0.195 x1=0.4 length=0.026208 units=km normamps=419.0
new line.52890138 phases=3 bus1=80551695002410.1.2.3 bus2=80551685002410.1.2.3 r1=0.195 x1=0.4 length=0.030503 units=km normamps=419.0
new line.52890140 phases=3 bus1=80551735002410B.1.2.3 bus2=91020025002410.1.2.3 r1=0.195 x1=0.4 length=0.020419 units=km normamps=419.0
new line.52890141 phases=3 bus1=80551745002410.1.2.3 bus2=80551605002410.1.2.3 r1=0.975 x1=0.47 length=0.02865 units=km normamps=152.0
new line.52890142 phases=3 bus1=80551755002410.1.2.3 bus2=80551745002410.1.2.3 r1=0.975 x1=0.47 length=0.011139 units=km normamps=152.0
new line.52890143 phases=3 bus1=80551775002410.1.2.3 bus2=80551625002410.1.2.3 r1=0.975 x1=0.47 length=0.042568 units=km normamps=152.0
new line.52890144 phases=3 bus1=80551805002410.1.2.3 bus2=80551775002410.1.2.3 r1=0.975 x1=0.47 length=0.008857 units=km normamps=152.0
new line.52890145 phases=3 bus1=80473265002410.1.2.3 bus2=80551635002410.1.2.3 r1=1.551 x1=0.49 length=0.037515 units=km normamps=114.0
new line.52890146 phases=3 bus1=80551825002410.1.2.3 bus2=80551665002410B.1.2.3 r1=0.975 x1=0.47 length=0.032545 units=km normamps=152.0
new line.52890147 phases=3 bus1=80551835002410.1.2.3 bus2=80551825002410.1.2.3 r1=0.975 x1=0.47 length=0.012406 units=km normamps=152.0
new line.52890148 phases=3 bus1=80551845002410.1.2.3 bus2=80551675002410B.1.2.3 r1=0.975 x1=0.47 length=0.036271 units=km normamps=152.0
new line.52890149 phases=3 bus1=80551855002410.1.2.3 bus2=80551685002410B.1.2.3 r1=0.975 x1=0.47 length=0.02473 units=km normamps=152.0
new line.52890150 phases=3 bus1=80551875002410.1.2.3 bus2=80551855002410.1.2.3 r1=0.975 x1=0.47 length=0.00746 units=km normamps=152.0
new line.52890151 phases=3 bus1=80551735002410.1.2.3 bus2=80551935002410.1.2.3 r1=0.195 x1=0.4 length=0.005573 units=km normamps=419.0
new line.52890152 phases=3 bus1=80551935002410.1.2.3 bus2=80551965002410.1.2.3 r1=0.195 x1=0.4 length=0.024711 units=km normamps=419.0
new line.52890159 phases=3 bus1=80551965002410.1.2.3 bus2=80551925002410.1.2.3 r1=0.195 x1=0.4 length=0.004216 units=km normamps=419.0
new line.52890160 phases=3 bus1=80551955002410.1.2.3 bus2=80551965002410.1.2.3 r1=0.195 x1=0.4 length=0.028522 units=km normamps=419.0
new line.52890161 phases=3 bus1=80551965002410.1.2.3 bus2=80551945002410.1.2.3 r1=0.195 x1=0.4 length=0.011658 units=km normamps=419.0
new line.52890162 phases=3 bus1=80551905002410.1.2.3 bus2=80551935002410.1.2.3 r1=1.551 x1=0.49 length=0.037515 units=km normamps=114.0
new line.52890163 phases=3 bus1=80551935002410.1.2.3 bus2=80551915002410.1.2.3 r1=1.551 x1=0.49 length=0.017178 units=km normamps=114.0
new line.52890164 phases=3 bus1=80551905002410B.1.2.3 bus2=80551975002410.1.2.3 r1=1.551 x1=0.49 length=0.02307 units=km normamps=114.0
new line.52890165 phases=3 bus1=80552005002410.1.2.3 bus2=80551925002410.1.2.3 r1=0.195 x1=0.4 length=0.038169 units=km normamps=419.0
new line.52890166 phases=3 bus1=80552015002410.1.2.3 bus2=80552005002410.1.2.3 r1=0.195 x1=0.4 length=0.007993 units=km normamps=419.0
new line.52890167 phases=3 bus1=80551925002410B.1.2.3 bus2=80551995002410.1.2.3 r1=0.975 x1=0.47 length=0.026383 units=km normamps=152.0
new line.52890168 phases=3 bus1=80552025002410.1.2.3 bus2=80551995002410.1.2.3 r1=0.975 x1=0.47 length=0.016602 units=km normamps=152.0
new line.52890169 phases=3 bus1=80551995002410.1.2.3 bus2=80552035002410.1.2.3 r1=0.975 x1=0.47 length=0.022979 units=km normamps=152.0
new line.52890170 phases=3 bus1=80552045002410.1.2.3 bus2=80552035002410.1.2.3 r1=0.975 x1=0.47 length=0.018013 units=km normamps=152.0
new line.52890171 phases=3 bus1=80552055002410.1.2.3 bus2=80551915002410B.1.2.3 r1=1.551 x1=0.49 length=0.03077 units=km normamps=114.0
new line.52890172 phases=3 bus1=80552065002410.1.2.3 bus2=80552055002410.1.2.3 r1=1.551 x1=0.49 length=0.006624 units=km normamps=114.0
new line.52890173 phases=3 bus1=80551985002410.1.2.3 bus2=95820425002410.1.2.3 r1=0.195 x1=0.4 length=0.006882 units=km normamps=419.0
new line.52890174 phases=3 bus1=80552095002410.1.2.3 bus2=95820435002410.1.2.3 r1=0.236 x1=0.27 length=0.012168 units=km normamps=456.0
new line.52890185 phases=3 bus1=80552195002410.1.2.3 bus2=80552205002410.1.2.3 r1=0.975 x1=0.47 length=0.040297 units=km normamps=152.0
new line.52890186 phases=3 bus1=80552215002410.1.2.3 bus2=80552195002410.1.2.3 r1=0.975 x1=0.47 length=0.007158 units=km normamps=152.0
new line.52890187 phases=3 bus1=80552205002410.1.2.3 bus2=80552225002410.1.2.3 r1=0.975 x1=0.47 length=0.013719 units=km normamps=152.0
new line.52890188 phases=3 bus1=80552235002410.1.2.3 bus2=80552225002410.1.2.3 r1=0.975 x1=0.47 length=0.007004 units=km normamps=152.0
new line.52890189 phases=3 bus1=80552205002410.1.2.3 bus2=80552245002410.1.2.3 r1=0.975 x1=0.47 length=0.02108 units=km normamps=152.0
new line.52890190 phases=3 bus1=80552265002410.1.2.3 bus2=80552275002410.1.2.3 r1=0.975 x1=0.47 length=0.025727 units=km normamps=152.0
new line.52890191 phases=3 bus1=80552275002410B.1.2.3 bus2=80552285002410.1.2.3 r1=0.975 x1=0.47 length=0.016646 units=km normamps=152.0
new line.52890192 phases=3 bus1=80552295002410.1.2.3 bus2=80552285002410.1.2.3 r1=0.975 x1=0.47 length=0.007056 units=km normamps=152.0
new line.52890193 phases=3 bus1=80552275002410.1.2.3 bus2=80552305002410.1.2.3 r1=0.975 x1=0.47 length=0.031847 units=km normamps=152.0
new line.52890194 phases=3 bus1=80552285002410.1.2.3 bus2=80552315002410.1.2.3 r1=0.975 x1=0.47 length=0.025645 units=km normamps=152.0
new line.52890195 phases=3 bus1=80552325002410.1.2.3 bus2=80552315002410.1.2.3 r1=0.975 x1=0.47 length=0.007158 units=km normamps=152.0
new line.52890196 phases=3 bus1=80552305002410.1.2.3 bus2=92694075002410.1.2.3 r1=1.551 x1=0.49 length=0.021656 units=km normamps=114.0
new line.52890225 phases=3 bus1=80552805002410.1.2.3 bus2=80552815002410.1.2.3 r1=0.975 x1=0.47 length=0.004824 units=km normamps=152.0
new line.52890226 phases=3 bus1=80552845002410.1.2.3 bus2=88674855002410.1.2.3 r1=0.195 x1=0.4 length=0.027578 units=km normamps=419.0
new line.52890227 phases=3 bus1=80552855002410.1.2.3 bus2=80552845002410.1.2.3 r1=0.195 x1=0.4 length=0.043361 units=km normamps=419.0
new line.52890228 phases=3 bus1=80552865002410.1.2.3 bus2=80552855002410.1.2.3 r1=0.195 x1=0.4 length=0.039876 units=km normamps=419.0
new line.52890229 phases=3 bus1=80552875002410.1.2.3 bus2=80552865002410.1.2.3 r1=0.195 x1=0.4 length=0.032936 units=km normamps=419.0
new line.52890230 phases=3 bus1=80552885002410B.1.2.3 bus2=87260505002410.1.2.3 r1=0.195 x1=0.4 length=0.017258 units=km normamps=419.0
new line.52890231 phases=3 bus1=80552885002410.1.2.3 bus2=93364455002410.1.2.3 r1=0.195 x1=0.4 length=0.009597 units=km normamps=419.0
new line.52890232 phases=3 bus1=80473735002410.1.2.3 bus2=80552815002410.1.2.3 r1=0.195 x1=0.4 length=0.038357 units=km normamps=419.0
new line.52890233 phases=3 bus1=80473755002410.1.2.3 bus2=80473735002410.1.2.3 r1=0.195 x1=0.4 length=0.030503 units=km normamps=419.0
new line.52890234 phases=3 bus1=80473765002410.1.2.3 bus2=80473755002410.1.2.3 r1=0.195 x1=0.4 length=0.036236 units=km normamps=419.0
new line.52890235 phases=3 bus1=80473785002410.1.2.3 bus2=80473765002410.1.2.3 r1=0.195 x1=0.4 length=0.033727 units=km normamps=419.0
new line.52890236 phases=3 bus1=80473805002410.1.2.3 bus2=80473785002410.1.2.3 r1=0.195 x1=0.4 length=0.037317 units=km normamps=419.0
new line.52890237 phases=3 bus1=80433495002410.1.2.3 bus2=80473805002410.1.2.3 r1=0.195 x1=0.4 length=0.040736 units=km normamps=419.0
new line.52890238 phases=3 bus1=80473815002410.1.2.3 bus2=80433495002410.1.2.3 r1=0.195 x1=0.4 length=0.036799 units=km normamps=419.0
new line.52890267 phases=3 bus1=80447825002410.1.2.3 bus2=80550335002410.1.2.3 r1=0.195 x1=0.4 length=0.026831 units=km normamps=419.0
new line.52890268 phases=3 bus1=80550345002410.1.2.3 bus2=80447825002410B.1.2.3 r1=0.195 x1=0.4 length=0.016862 units=km normamps=419.0
new line.52890269 phases=3 bus1=80550355002410.1.2.3 bus2=80550345002410.1.2.3 r1=0.195 x1=0.4 length=0.028958 units=km normamps=419.0
new line.52890270 phases=3 bus1=80550365002410.1.2.3 bus2=80550355002410.1.2.3 r1=0.195 x1=0.4 length=0.038424 units=km normamps=419.0
new line.52890271 phases=3 bus1=80550375002410.1.2.3 bus2=80550365002410.1.2.3 r1=0.195 x1=0.4 length=0.00746 units=km normamps=419.0
new line.52890272 phases=3 bus1=80550385002410.1.2.3 bus2=80550365002410.1.2.3 r1=0.195 x1=0.4 length=0.030844 units=km normamps=419.0
new line.52890273 phases=3 bus1=80550385002410.1.2.3 bus2=80550395002410.1.2.3 r1=0.195 x1=0.4 length=0.015022 units=km normamps=419.0
new line.52890274 phases=3 bus1=80550395002410B.1.2.3 bus2=94243205002410.1.2.3 r1=0.236 x1=0.27 length=0.015543 units=km normamps=456.0
new line.52890292 phases=3 bus1=80550625002410.1.2.3 bus2=80550635002410.1.2.3 r1=0.195 x1=0.4 length=0.032027 units=km normamps=419.0
new line.52890293 phases=3 bus1=80550675002410.1.2.3 bus2=80550385002410.1.2.3 r1=0.195 x1=0.4 length=0.045197 units=km normamps=419.0
new line.52890294 phases=3 bus1=80550685002410.1.2.3 bus2=80550675002410.1.2.3 r1=0.195 x1=0.4 length=0.034977 units=km normamps=419.0
new line.52890295 phases=3 bus1=80550695002410.1.2.3 bus2=80550685002410.1.2.3 r1=0.195 x1=0.4 length=0.041435 units=km normamps=419.0
new line.52890296 phases=3 bus1=80550705002410.1.2.3 bus2=80550695002410.1.2.3 r1=0.195 x1=0.4 length=0.04172 units=km normamps=419.0
new line.52890297 phases=3 bus1=80550715002410.1.2.3 bus2=93890745002410.1.2.3 r1=0.195 x1=0.4 length=0.009701 units=km normamps=419.0
new line.52890298 phases=3 bus1=80550725002410.1.2.3 bus2=80550715002410.1.2.3 r1=0.195 x1=0.4 length=0.023935 units=km normamps=419.0
new line.52890299 phases=3 bus1=80550735002410B.1.2.3 bus2=80550725002410.1.2.3 r1=0.195 x1=0.4 length=0.02038 units=km normamps=419.0
new line.52890300 phases=3 bus1=80550745002410.1.2.3 bus2=80550735002410.1.2.3 r1=0.195 x1=0.4 length=0.008434 units=km normamps=419.0
new line.52890301 phases=3 bus1=80550755002410.1.2.3 bus2=80550745002410.1.2.3 r1=0.195 x1=0.4 length=0.006868 units=km normamps=419.0
new line.52890302 phases=3 bus1=80550765002410.1.2.3 bus2=80550755002410.1.2.3 r1=0.195 x1=0.4 length=0.054468 units=km normamps=419.0
new line.52890303 phases=3 bus1=80550775002410.1.2.3 bus2=80550765002410.1.2.3 r1=0.195 x1=0.4 length=0.00636 units=km normamps=419.0
new line.52890304 phases=3 bus1=80550785002410.1.2.3 bus2=80550765002410.1.2.3 r1=0.195 x1=0.4 length=0.049855 units=km normamps=419.0
new line.52890305 phases=3 bus1=80550795002410.1.2.3 bus2=80550785002410.1.2.3 r1=0.195 x1=0.4 length=0.00822 units=km normamps=419.0
new line.52890306 phases=3 bus1=80550805002410.1.2.3 bus2=80550785002410.1.2.3 r1=0.195 x1=0.4 length=0.035259 units=km normamps=419.0
new line.52890307 phases=3 bus1=80550635002410.1.2.3 bus2=80550805002410.1.2.3 r1=0.195 x1=0.4 length=0.021351 units=km normamps=419.0
new line.52890308 phases=3 bus1=80550755002410.1.2.3 bus2=80550845002410.1.2.3 r1=1.551 x1=0.49 length=0.029078 units=km normamps=114.0
new line.52890309 phases=3 bus1=80550855002410.1.2.3 bus2=80550845002410.1.2.3 r1=1.551 x1=0.49 length=0.008605 units=km normamps=114.0
new line.52890310 phases=3 bus1=80550865002410.1.2.3 bus2=80550745002410.1.2.3 r1=0.195 x1=0.4 length=0.041289 units=km normamps=419.0
new line.52890311 phases=3 bus1=80550875002410.1.2.3 bus2=80550865002410.1.2.3 r1=0.195 x1=0.4 length=0.039138 units=km normamps=419.0
new line.52890312 phases=3 bus1=80472765002410.1.2.3 bus2=80550875002410.1.2.3 r1=0.195 x1=0.4 length=0.033374 units=km normamps=419.0
new line.52890313 phases=3 bus1=80552855002410.1.2.3 bus2=80554235002410.1.2.3 r1=0.195 x1=0.4 length=0.005772 units=km normamps=419.0
new line.52890314 phases=3 bus1=80554355002410.1.2.3 bus2=80554365002410.1.2.3 r1=0.195 x1=0.4 length=0.033988 units=km normamps=419.0
new line.52890315 phases=3 bus1=80554365002410.1.2.3 bus2=80554375002410.1.2.3 r1=0.195 x1=0.4 length=0.03428 units=km normamps=419.0
new line.52890320 phases=3 bus1=80553965002410.1.2.3 bus2=80553945002410.1.2.3 r1=1.551 x1=0.49 length=0.049964 units=km normamps=114.0
new line.52890321 phases=3 bus1=80553975002410.1.2.3 bus2=80553965002410.1.2.3 r1=1.551 x1=0.49 length=0.035141 units=km normamps=114.0
new line.52890322 phases=3 bus1=80553995002410.1.2.3 bus2=80553975002410.1.2.3 r1=1.551 x1=0.49 length=0.016624 units=km normamps=114.0
new line.52890328 phases=3 bus1=80554375002410.1.2.3 bus2=80554385002410.1.2.3 r1=0.195 x1=0.4 length=0.028795 units=km normamps=419.0
new line.52890329 phases=3 bus1=80554385002410.1.2.3 bus2=80554395002410.1.2.3 r1=0.195 x1=0.4 length=0.024584 units=km normamps=419.0
new line.52890330 phases=3 bus1=80554395002410B.1.2.3 bus2=80554405002410.1.2.3 r1=0.975 x1=0.47 length=0.02603 units=km normamps=152.0
new line.52890331 phases=3 bus1=80554395002410.1.2.3 bus2=80554415002410.1.2.3 r1=0.195 x1=0.4 length=0.035954 units=km normamps=419.0
new line.52890332 phases=3 bus1=80554415002410.1.2.3 bus2=80554425002410.1.2.3 r1=0.195 x1=0.4 length=0.028071 units=km normamps=419.0
new line.52890333 phases=3 bus1=80554425002410.1.2.3 bus2=80554435002410.1.2.3 r1=0.195 x1=0.4 length=0.031772 units=km normamps=419.0
new line.52890334 phases=3 bus1=80554445002410.1.2.3 bus2=80554435002410.1.2.3 r1=0.195 x1=0.4 length=0.009581 units=km normamps=419.0
new line.52890335 phases=3 bus1=80554435002410.1.2.3 bus2=80554185002410.1.2.3 r1=0.195 x1=0.4 length=0.025297 units=km normamps=419.0
new line.52890336 phases=3 bus1=80554455002410.1.2.3 bus2=80554185002410.1.2.3 r1=0.195 x1=0.4 length=0.006135 units=km normamps=419.0
new line.52890337 phases=3 bus1=80554465002410.1.2.3 bus2=80554405002410.1.2.3 r1=0.975 x1=0.47 length=0.024749 units=km normamps=152.0
new line.52890338 phases=3 bus1=80554535002410.1.2.3 bus2=80554545002410.1.2.3 r1=0.236 x1=0.27 length=0.032722 units=km normamps=456.0
new line.52890339 phases=3 bus1=80554545002410.1.2.3 bus2=80554555002410.1.2.3 r1=0.236 x1=0.27 length=0.029629 units=km normamps=456.0
new line.52890340 phases=3 bus1=80554535002410.1.2.3 bus2=80554575002410.1.2.3 r1=0.236 x1=0.27 length=0.01371 units=km normamps=456.0
new line.52890341 phases=3 bus1=80554575002410.1.2.3 bus2=80554585002410.1.2.3 r1=0.236 x1=0.27 length=0.027073 units=km normamps=456.0
new line.52890342 phases=3 bus1=80554585002410.1.2.3 bus2=80554595002410.1.2.3 r1=0.236 x1=0.27 length=0.034827 units=km normamps=456.0
new line.52890343 phases=3 bus1=80554535002410B.1.2.3 bus2=80554605002410.1.2.3 r1=0.236 x1=0.27 length=0.039932 units=km normamps=456.0
new line.52890345 phases=3 bus1=80554605002410.1.2.3 bus2=80554625002410.1.2.3 r1=0.236 x1=0.27 length=0.013332 units=km normamps=456.0
new line.52890346 phases=3 bus1=80554625002410.1.2.3 bus2=80554635002410.1.2.3 r1=0.236 x1=0.27 length=0.014352 units=km normamps=456.0
new line.52890347 phases=3 bus1=80554645002410.1.2.3 bus2=80554635002410.1.2.3 r1=0.236 x1=0.27 length=0.004163 units=km normamps=456.0
new line.52890348 phases=3 bus1=80553945002410.1.2.3 bus2=80554695002410.1.2.3 r1=1.551 x1=0.49 length=0.038384 units=km normamps=114.0
new line.52890349 phases=3 bus1=80554695002410.1.2.3 bus2=80554715002410.1.2.3 r1=1.551 x1=0.49 length=0.034625 units=km normamps=114.0
new line.52890350 phases=3 bus1=80554715002410.1.2.3 bus2=80554725002410.1.2.3 r1=1.551 x1=0.49 length=0.019423 units=km normamps=114.0
new line.52890351 phases=3 bus1=80554735002410.1.2.3 bus2=80554725002410.1.2.3 r1=1.551 x1=0.49 length=0.007048 units=km normamps=114.0
...

! 3. Chaves Seccionadoras MT
new line.SC_5271066 phases=3 bus1=80473265002410.1.2.3 bus2=80473265002410B.1.2.3 switch=y r1=1e-4 x1=1e-4 length=0.001 units=km
new line.SC_5271067 phases=3 bus1=80472765002410.1.2.3 bus2=80472765002410B.1.2.3 switch=y r1=1e-4 x1=1e-4 length=0.001 units=km
new line.SC_5271139 phases=3 bus1=80474515002410.1.2.3 bus2=80474515002410B.1.2.3 switch=y r1=1e-4 x1=1e-4 length=0.001 units=km
new line.SC_5271140 phases=3 bus1=80474545002410.1.2.3 bus2=80474545002410B.1.2.3 switch=y r1=1e-4 x1=1e-4 length=0.001 units=km
new line.SC_5272290 phases=3 bus1=80473245002410.1.2.3 bus2=80473245002410B.1.2.3 switch=y r1=1e-4 x1=1e-4 length=0.001 units=km
new line.SC_5272291 phases=3 bus1=80550915002410.1.2.3 bus2=80550915002410B.1.2.3 switch=y r1=1e-4 x1=1e-4 length=0.001 units=km
new line.SC_5272292 phases=3 bus1=80551735002410.1.2.3 bus2=80551735002410B.1.2.3 switch=y r1=1e-4 x1=1e-4 length=0.001 units=km
new line.SC_5272293 phases=3 bus1=80550735002410.1.2.3 bus2=80550735002410B.1.2.3 switch=y r1=1e-4 x1=1e-4 length=0.001 units=km
new line.SC_5272294 phases=3 bus1=80551955002410.1.2.3 bus2=80551955002410B.1.2.3 switch=y r1=1e-4 x1=1e-4 length=0.001 units=km
new line.SC_5272296 phases=3 bus1=80550395002410.1.2.3 bus2=80550395002410B.1.2.3 switch=y r1=1e-4 x1=1e-4 length=0.001 units=km
new line.SC_5272297 phases=3 bus1=80559335002410.1.2.3 bus2=80559335002410B.1.2.3 switch=y r1=1e-4 x1=1e-4 length=0.001 units=km
new line.SC_5272301 phases=3 bus1=80560645002410.1.2.3 bus2=80560645002410B.1.2.3 switch=y r1=1e-4 x1=1e-4 length=0.001 units=km
new line.SC_5272377 phases=3 bus1=80551175002410.1.2.3 bus2=80551175002410B.1.2.3 switch=y r1=1e-4 x1=1e-4 length=0.001 units=km
new line.SC_5272378 phases=3 bus1=80551215002410.1.2.3 bus2=80551215002410B.1.2.3 switch=y r1=1e-4 x1=1e-4 length=0.001 units=km
new line.SC_5272382 phases=3 bus1=80551665002410.1.2.3 bus2=80551665002410B.1.2.3 switch=y r1=1e-4 x1=1e-4 length=0.001 units=km
new line.SC_5272383 phases=3 bus1=80552275002410.1.2.3 bus2=80552275002410B.1.2.3 switch=y r1=1e-4 x1=1e-4 length=0.001 units=km
new line.SC_5272384 phases=3 bus1=80551915002410.1.2.3 bus2=80551915002410B.1.2.3 switch=y r1=1e-4 x1=1e-4 length=0.001 units=km
new line.SC_5272385 phases=3 bus1=80551675002410.1.2.3 bus2=80551675002410B.1.2.3 switch=y r1=1e-4 x1=1e-4 length=0.001 units=km
new line.SC_5272386 phases=3 bus1=80551685002410.1.2.3 bus2=80551685002410B.1.2.3 switch=y r1=1e-4 x1=1e-4 length=0.001 units=km
new line.SC_5272387 phases=3 bus1=80551905002410.1.2.3 bus2=80551905002410B.1.2.3 switch=y r1=1e-4 x1=1e-4 length=0.001 units=km
new line.SC_5272388 phases=3 bus1=80551925002410.1.2.3 bus2=80551925002410B.1.2.3 switch=y r1=1e-4 x1=1e-4 length=0.001 units=km
new line.SC_5272398 phases=3 bus1=80554535002410.1.2.3 bus2=80554535002410B.1.2.3 switch=y r1=1e-4 x1=1e-4 length=0.001 units=km
new line.SC_5272400 phases=3 bus1=80555295002410.1.2.3 bus2=80555295002410B.1.2.3 switch=y r1=1e-4 x1=1e-4 length=0.001 units=km
new line.SC_5272402 phases=3 bus1=80554395002410.1.2.3 bus2=80554395002410B.1.2.3 switch=y r1=1e-4 x1=1e-4 length=0.001 units=km
new line.SC_5272403 phases=3 bus1=80555075002410.1.2.3 bus2=80555075002410B.1.2.3 switch=y r1=1e-4 x1=1e-4 length=0.001 units=km
new line.SC_5272408 phases=3 bus1=80559445002410.1.2.3 bus2=80559445002410B.1.2.3 switch=y r1=1e-4 x1=1e-4 length=0.001 units=km
new line.SC_5272412 phases=3 bus1=80556065002410.1.2.3 bus2=80556065002410B.1.2.3 switch=y r1=1e-4 x1=1e-4 length=0.001 units=km
new line.SC_5284300 phases=3 bus1=80551945002410.1.2.3 bus2=80551945002410B.1.2.3 switch=y r1=1e-4 x1=1e-4 length=0.001 units=km
new line.SC_5284303 phases=3 bus1=80473255002410.1.2.3 bus2=80473255002410B.1.2.3 switch=y r1=1e-4 x1=1e-4 length=0.001 units=km
new line.SC_5284305 phases=3 bus1=81756285002410.1.2.3 bus2=81756285002410B.1.2.3 switch=y r1=1e-4 x1=1e-4 length=0.001 units=km
new line.SC_5284306 phases=3 bus1=81756315002410.1.2.3 bus2=81756315002410B.1.2.3 switch=y r1=1e-4 x1=1e-4 length=0.001 units=km
new line.SC_5284312 phases=3 bus1=80555065002410.1.2.3 bus2=80555065002410B.1.2.3 switch=y r1=1e-4 x1=1e-4 length=0.001 units=km
new line.SC_5284363 phases=3 bus1=81757245002410.1.2.3 bus2=81757245002410B.1.2.3 switch=y r1=1e-4 x1=1e-4 length=0.001 units=km
new line.SC_5284364 phases=3 bus1=81757355002410.1.2.3 bus2=81757355002410B.1.2.3 switch=y r1=1e-4 x1=1e-4 length=0.001 units=km
new line.SC_5284365 phases=3 bus1=81756165002410.1.2.3 bus2=81756165002410B.1.2.3 switch=y r1=1e-4 x1=1e-4 length=0.001 units=km
new line.SC_5284366 phases=3 bus1=81756225002410.1.2.3 bus2=81756225002410B.1.2.3 switch=y r1=1e-4 x1=1e-4 length=0.001 units=km
new line.SC_5284367 phases=3 bus1=81756245002410.1.2.3 bus2=81756245002410B.1.2.3 switch=y r1=1e-4 x1=1e-4 length=0.001 units=km
new line.SC_5284378 phases=3 bus1=81756035002410.1.2.3 bus2=81756035002410B.1.2.3 switch=y r1=1e-4 x1=1e-4 length=0.001 units=km
new line.SC_5284379 phases=3 bus1=81756355002410.1.2.3 bus2=81756355002410B.1.2.3 switch=y r1=1e-4 x1=1e-4 length=0.001 units=km
new line.SC_5284381 phases=3 bus1=81756065002410.1.2.3 bus2=81756065002410B.1.2.3 switch=y r1=1e-4 x1=1e-4 length=0.001 units=km
new line.SC_5331981 phases=3 bus1=80559325002410.1.2.3 bus2=80559325002410B.1.2.3 switch=y r1=1e-4 x1=1e-4 length=0.001 units=km
new line.SC_5566154 phases=3 bus1=80554365002410.1.2.3 bus2=80554365002410B.1.2.3 switch=y r1=1e-4 x1=1e-4 length=0.001 units=km
new line.SC_5579809 phases=3 bus1=90994555002410.1.2.3 bus2=90994555002410B.1.2.3 switch=y r1=1e-4 x1=1e-4 length=0.001 units=km
new line.SC_5580486 phases=3 bus1=93597755002410.1.2.3 bus2=93597755002410B.1.2.3 switch=y r1=1e-4 x1=1e-4 length=0.001 units=km
new line.SC_5580487 phases=3 bus1=93597725002410.1.2.3 bus2=93597725002410B.1.2.3 switch=y r1=1e-4 x1=1e-4 length=0.001 units=km
new line.SC_5580488 phases=3 bus1=93309265002410.1.2.3 bus2=93309265002410B.1.2.3 switch=y r1=1e-4 x1=1e-4 length=0.001 units=km
open line.SC_5580488 1
new line.SC_5580489 phases=3 bus1=80551725002410.1.2.3 bus2=80551725002410B.1.2.3 switch=y r1=1e-4 x1=1e-4 length=0.001 units=km
new line.SC_5640714 phases=3 bus1=92860465002410.1.2.3 bus2=92860465002410B.1.2.3 switch=y r1=1e-4 x1=1e-4 length=0.001 units=km
open line.SC_5640714 1
new line.SC_5640715 phases=3 bus1=92860495002410.1.2.3 bus2=92860495002410B.1.2.3 switch=y r1=1e-4 x1=1e-4 length=0.001 units=km
open line.SC_5640715 1
new line.SC_5647892 phases=3 bus1=80474565002410.1.2.3 bus2=80474565002410B.1.2.3 switch=y r1=1e-4 x1=1e-4 length=0.001 units=km
new line.SC_5647911 phases=3 bus1=80551615002410.1.2.3 bus2=80551615002410B.1.2.3 switch=y r1=1e-4 x1=1e-4 length=0.001 units=km
new line.SC_5652770 phases=3 bus1=80552885002410.1.2.3 bus2=80552885002410B.1.2.3 switch=y r1=1e-4 x1=1e-4 length=0.001 units=km
new line.SC_5658902 phases=3 bus1=93485655002410.1.2.3 bus2=93485655002410B.1.2.3 switch=y r1=1e-4 x1=1e-4 length=0.001 units=km
open line.SC_5658902 1
new line.SC_5672677 phases=3 bus1=93943435002410.1.2.3 bus2=93943435002410B.1.2.3 switch=y r1=1e-4 x1=1e-4 length=0.001 units=km
open line.SC_5672677 1
new line.SC_5675298 phases=3 bus1=93890525002410.1.2.3 bus2=93890525002410B.1.2.3 switch=y r1=1e-4 x1=1e-4 length=0.001 units=km
new line.SC_5685215 phases=3 bus1=94243505002410.1.2.3 bus2=94243505002410B.1.2.3 switch=y r1=1e-4 x1=1e-4 length=0.001 units=km
new line.SC_5685216 phases=3 bus1=94243455002410.1.2.3 bus2=94243455002410B.1.2.3 switch=y r1=1e-4 x1=1e-4 length=0.001 units=km
open line.SC_5685216 1
new line.SC_5685218 phases=3 bus1=94243185002410.1.2.3 bus2=94243185002410B.1.2.3 switch=y r1=1e-4 x1=1e-4 length=0.001 units=km
open line.SC_5685218 1
new line.SC_5691063 phases=3 bus1=93485615002410.1.2.3 bus2=93485615002410B.1.2.3 switch=y r1=1e-4 x1=1e-4 length=0.001 units=km
new line.SC_5707727 phases=3 bus1=80474685002410.1.2.3 bus2=80474685002410B.1.2.3 switch=y r1=1e-4 x1=1e-4 length=0.001 units=km
new line.SC_5720512 phases=3 bus1=80447825002410.1.2.3 bus2=80447825002410B.1.2.3 switch=y r1=1e-4 x1=1e-4 length=0.001 units=km
new line.SC_5725463 phases=3 bus1=95428575002410.1.2.3 bus2=95428575002410B.1.2.3 switch=y r1=1e-4 x1=1e-4 length=0.001 units=km
open line.SC_5725463 1
new line.SC_5725464 phases=3 bus1=95428605002410.1.2.3 bus2=95428605002410B.1.2.3 switch=y r1=1e-4 x1=1e-4 length=0.001 units=km
open line.SC_5725464 1
new line.SC_5734646 phases=3 bus1=95820445002410.1.2.3 bus2=95820445002410B.1.2.3 switch=y r1=1e-4 x1=1e-4 length=0.001 units=km
open line.SC_5734646 1
new line.SC_5734648 phases=3 bus1=80551985002410.1.2.3 bus2=80551985002410B.1.2.3 switch=y r1=1e-4 x1=1e-4 length=0.001 units=km
new line.SC_5740404 phases=3 bus1=96041545002410.1.2.3 bus2=96041545002410B.1.2.3 switch=y r1=1e-4 x1=1e-4 length=0.001 units=km
open line.SC_5740404 1
new line.SC_5740405 phases=3 bus1=96041535002410.1.2.3 bus2=96041535002410B.1.2.3 switch=y r1=1e-4 x1=1e-4 length=0.001 units=km
open line.SC_5740405 1
new line.SC_5751583 phases=3 bus1=96641895002410.1.2.3 bus2=96641895002410B.1.2.3 switch=y r1=1e-4 x1=1e-4 length=0.001 units=km
open line.SC_5751583 1
new line.SC_5766985 phases=3 bus1=80559615002410.1.2.3 bus2=80559615002410B.1.2.3 switch=y r1=1e-4 x1=1e-4 length=0.001 units=km
new line.SC_5766986 phases=3 bus1=80559745002410.1.2.3 bus2=80559745002410B.1.2.3 switch=y r1=1e-4 x1=1e-4 length=0.001 units=km
new line.SC_5768448 phases=3 bus1=97389515002410.1.2.3 bus2=97389515002410B.1.2.3 switch=y r1=1e-4 x1=1e-4 length=0.001 units=km
open line.SC_5768448 1
new line.SC_5779533 phases=3 bus1=80559635002410.1.2.3 bus2=80559635002410B.1.2.3 switch=y r1=1e-4 x1=1e-4 length=0.001 units=km
new line.SC_GOLS013BANCAP123BC1 phases=3 bus1=I888888103075002410.1.2.3 bus2=I888888103075002410B.1.2.3 switch=y r1=1e-4 x1=1e-4 length=0.001 units=km
new line.SC_DA0000288 phases=3 bus1=I888888313045002410.1.2.3 bus2=I888888313045002410B.1.2.3 switch=y r1=1e-4 x1=1e-4 length=0.001 units=km
new line.SC_SA0002788 phases=3 bus1=I888888313055002410.1.2.3 bus2=I888888313055002410B.1.2.3 switch=y r1=1e-4 x1=1e-4 length=0.001 units=km
new line.SC_SA0002789 phases=3 bus1=I888888103075002410.1.2.3 bus2=I888888103075002410B.1.2.3 switch=y r1=1e-4 x1=1e-4 length=0.001 units=km
new line.SC_SA0002790 phases=3 bus1=I888888313035002410.1.2.3 bus2=I888888477650B.1.2.3 switch=y r1=1e-4 x1=1e-4 length=0.001 units=km

! 5. Transformadores MT/BT de Distribuicao
new transformer.UNTRMT_5271082 phases=3 windings=2 %r=1.39 xhl=3.21 kva=112.0
~ wdg=1 bus=80472685002410.1.2.3 conn=delta kv=13.8
~ wdg=2 bus=80472685271082.1.2.3.0 conn=wye kv=0.38

new transformer.UNTRMT_5271083 phases=3 windings=2 %r=1.55 xhl=3.14 kva=75.0
~ wdg=1 bus=80472695002410.1.2.3 conn=delta kv=13.8
~ wdg=2 bus=80472695271083.1.2.3.0 conn=wye kv=0.38

new transformer.UNTRMT_5271084 phases=3 windings=2 %r=1.39 xhl=3.21 kva=150.0
~ wdg=1 bus=80472725002410.1.2.3 conn=delta kv=13.8
~ wdg=2 bus=80472725271084.1.2.3.0 conn=wye kv=0.38

new transformer.UNTRMT_5271171 phases=3 windings=2 %r=1.46 xhl=3.18 kva=112.0
~ wdg=1 bus=80473325002410.1.2.3 conn=delta kv=13.8
~ wdg=2 bus=80473325271171.1.2.3.0 conn=wye kv=0.38

new transformer.UNTRMT_5271172 phases=3 windings=2 %r=1.46 xhl=3.18 kva=112.0
~ wdg=1 bus=80473355002410.1.2.3 conn=delta kv=13.8
~ wdg=2 bus=80473355271172.1.2.3.0 conn=wye kv=0.38

new transformer.UNTRMT_5271173 phases=3 windings=2 %r=1.55 xhl=3.14 kva=75.0
~ wdg=1 bus=80473375002410.1.2.3 conn=delta kv=13.8
~ wdg=2 bus=80473375271173.1.2.3.0 conn=wye kv=0.38

new transformer.UNTRMT_5271175 phases=3 windings=2 %r=1.55 xhl=3.14 kva=75.0
~ wdg=1 bus=80472705002410.1.2.3 conn=delta kv=13.8
~ wdg=2 bus=80472705271175.1.2.3.0 conn=wye kv=0.38

new transformer.UNTRMT_5271176 phases=3 windings=2 %r=1.46 xhl=3.18 kva=112.0
~ wdg=1 bus=80474455002410.1.2.3 conn=delta kv=13.8
~ wdg=2 bus=80474455271176.1.2.3.0 conn=wye kv=0.38

new transformer.UNTRMT_5271177 phases=3 windings=2 %r=1.46 xhl=3.18 kva=112.0
~ wdg=1 bus=80474465002410.1.2.3 conn=delta kv=13.8
~ wdg=2 bus=80474465271177.1.2.3.0 conn=wye kv=0.38

new transformer.UNTRMT_5271178 phases=3 windings=2 %r=1.46 xhl=3.18 kva=112.0
~ wdg=1 bus=80474625002410.1.2.3 conn=delta kv=13.8
~ wdg=2 bus=80474625271178.1.2.3.0 conn=wye kv=0.38

new transformer.UNTRMT_5271179 phases=3 windings=2 %r=1.46 xhl=3.18 kva=112.0
~ wdg=1 bus=80474645002410.1.2.3 conn=delta kv=13.8
~ wdg=2 bus=80474645271179.1.2.3.0 conn=wye kv=0.38

new transformer.UNTRMT_5271180 phases=3 windings=2 %r=1.39 xhl=3.21 kva=150.0
~ wdg=1 bus=80473295002410.1.2.3 conn=delta kv=13.8
~ wdg=2 bus=80473295271180.1.2.3.0 conn=wye kv=0.38

new transformer.UNTRMT_5271184 phases=3 windings=2 %r=1.46 xhl=3.18 kva=112.0
~ wdg=1 bus=80473235002410.1.2.3 conn=delta kv=13.8
~ wdg=2 bus=80473235271184.1.2.3.0 conn=wye kv=0.38

new transformer.UNTRMT_5271185 phases=3 windings=2 %r=1.3 xhl=4.31 kva=225.0
~ wdg=1 bus=80474985002410.1.2.3 conn=delta kv=13.8
~ wdg=2 bus=80474985271185.1.2.3.0 conn=wye kv=0.38

new transformer.UNTRMT_5271186 phases=3 windings=2 %r=1.55 xhl=3.14 kva=75.0
~ wdg=1 bus=80474875002410.1.2.3 conn=delta kv=13.8
~ wdg=2 bus=80474875271186.1.2.3.0 conn=wye kv=0.38

new transformer.UNTRMT_5272311 phases=3 windings=2 %r=1.55 xhl=3.14 kva=75.0
~ wdg=1 bus=80551035002410.1.2.3 conn=delta kv=13.8
~ wdg=2 bus=80551035272311.1.2.3.0 conn=wye kv=0.38

new transformer.UNTRMT_5272319 phases=3 windings=2 %r=1.55 xhl=3.14 kva=75.0
~ wdg=1 bus=80551755002410.1.2.3 conn=delta kv=13.8
~ wdg=2 bus=80551755272319.1.2.3.0 conn=wye kv=0.38

new transformer.UNTRMT_5272320 phases=3 windings=2 %r=1.55 xhl=3.14 kva=75.0
~ wdg=1 bus=80551835002410.1.2.3 conn=delta kv=13.8
~ wdg=2 bus=80551835272320.1.2.3.0 conn=wye kv=0.38

new transformer.UNTRMT_5272321 phases=3 windings=2 %r=1.46 xhl=3.18 kva=112.0
~ wdg=1 bus=80552045002410.1.2.3 conn=delta kv=13.8
~ wdg=2 bus=80552045272321.1.2.3.0 conn=wye kv=0.38

new transformer.UNTRMT_5272322 phases=3 windings=2 %r=1.39 xhl=3.21 kva=150.0
~ wdg=1 bus=80552065002410.1.2.3 conn=delta kv=13.8
~ wdg=2 bus=80552065272322.1.2.3.0 conn=wye kv=0.38

new transformer.UNTRMT_5272330 phases=3 windings=2 %r=1.46 xhl=3.18 kva=112.0
~ wdg=1 bus=80550375002410.1.2.3 conn=delta kv=13.8
~ wdg=2 bus=80550375272330.1.2.3.0 conn=wye kv=0.38

new transformer.UNTRMT_5272337 phases=3 windings=2 %r=1.25 xhl=4.32 kva=300.0
~ wdg=1 bus=80554235002410.1.2.3 conn=delta kv=13.8
~ wdg=2 bus=80554235272337.1.2.3.0 conn=wye kv=0.38

new transformer.UNTRMT_5272346 phases=3 windings=2 %r=1.46 xhl=3.18 kva=112.0
~ wdg=1 bus=80555365002410.1.2.3 conn=delta kv=13.8
~ wdg=2 bus=80555365272346.1.2.3.0 conn=wye kv=0.38

new transformer.UNTRMT_5272347 phases=3 windings=2 %r=1.25 xhl=4.32 kva=300.0
~ wdg=1 bus=80555405002410.1.2.3 conn=delta kv=13.8
~ wdg=2 bus=80555405272347.1.2.3.0 conn=wye kv=0.38

new transformer.UNTRMT_5272348 phases=3 windings=2 %r=1.39 xhl=3.21 kva=150.0
~ wdg=1 bus=80554455002410.1.2.3 conn=delta kv=13.8
~ wdg=2 bus=80554455272348.1.2.3.0 conn=wye kv=0.38

new transformer.UNTRMT_5272432 phases=3 windings=2 %r=1.55 xhl=3.14 kva=75.0
~ wdg=1 bus=80551265002410.1.2.3 conn=delta kv=13.8
~ wdg=2 bus=80551265272432.1.2.3.0 conn=wye kv=0.38

new transformer.UNTRMT_5272435 phases=3 windings=2 %r=1.55 xhl=3.14 kva=75.0
~ wdg=1 bus=80551805002410.1.2.3 conn=delta kv=13.8
~ wdg=2 bus=80551805272435.1.2.3.0 conn=wye kv=0.38

new transformer.UNTRMT_5272436 phases=3 windings=2 %r=1.39 xhl=3.21 kva=150.0
~ wdg=1 bus=80552025002410.1.2.3 conn=delta kv=13.8
~ wdg=2 bus=80552025272436.1.2.3.0 conn=wye kv=0.38

new transformer.UNTRMT_5272437 phases=3 windings=2 %r=1.46 xhl=3.18 kva=112.0
~ wdg=1 bus=80552095002410.1.2.3 conn=delta kv=13.8
~ wdg=2 bus=80552095272437.1.2.3.0 conn=wye kv=0.38

new transformer.UNTRMT_5272438 phases=3 windings=2 %r=1.55 xhl=3.14 kva=75.0
~ wdg=1 bus=80552215002410.1.2.3 conn=delta kv=13.8
~ wdg=2 bus=80552215272438.1.2.3.0 conn=wye kv=0.38

new transformer.UNTRMT_5272439 phases=3 windings=2 %r=1.55 xhl=3.14 kva=75.0
~ wdg=1 bus=80552235002410.1.2.3 conn=delta kv=13.8
~ wdg=2 bus=80552235272439.1.2.3.0 conn=wye kv=0.38

new transformer.UNTRMT_5272440 phases=3 windings=2 %r=1.55 xhl=3.14 kva=75.0
~ wdg=1 bus=80552245002410.1.2.3 conn=delta kv=13.8
~ wdg=2 bus=80552245272440.1.2.3.0 conn=wye kv=0.38

new transformer.UNTRMT_5272441 phases=3 windings=2 %r=1.46 xhl=3.18 kva=112.0
~ wdg=1 bus=80552265002410.1.2.3 conn=delta kv=13.8
~ wdg=2 bus=80552265272441.1.2.3.0 conn=wye kv=0.38

new transformer.UNTRMT_5272445 phases=3 windings=2 %r=1.55 xhl=3.14 kva=75.0
~ wdg=1 bus=80550685002410.1.2.3 conn=delta kv=13.8
~ wdg=2 bus=80550685272445.1.2.3.0 conn=wye kv=0.38

new transformer.UNTRMT_5272446 phases=3 windings=2 %r=1.46 xhl=3.18 kva=112.0
~ wdg=1 bus=80553995002410.1.2.3 conn=delta kv=13.8
~ wdg=2 bus=80553995272446.1.2.3.0 conn=wye kv=0.38

new transformer.UNTRMT_5272447 phases=3 windings=2 %r=1.46 xhl=3.18 kva=112.0
~ wdg=1 bus=80551845002410.1.2.3 conn=delta kv=13.8
~ wdg=2 bus=80551845272447.1.2.3.0 conn=wye kv=0.38

new transformer.UNTRMT_5272448 phases=3 windings=2 %r=1.55 xhl=3.14 kva=75.0
~ wdg=1 bus=80551875002410.1.2.3 conn=delta kv=13.8
~ wdg=2 bus=80551875272448.1.2.3.0 conn=wye kv=0.38

new transformer.UNTRMT_5272449 phases=3 windings=2 %r=1.55 xhl=3.14 kva=75.0
~ wdg=1 bus=80552015002410.1.2.3 conn=delta kv=13.8
~ wdg=2 bus=80552015272449.1.2.3.0 conn=wye kv=0.38

new transformer.UNTRMT_5272450 phases=3 windings=2 %r=1.55 xhl=3.14 kva=75.0
~ wdg=1 bus=80552295002410.1.2.3 conn=delta kv=13.8
~ wdg=2 bus=80552295272450.1.2.3.0 conn=wye kv=0.38

new transformer.UNTRMT_5272451 phases=3 windings=2 %r=1.46 xhl=3.18 kva=112.0
~ wdg=1 bus=80552325002410.1.2.3 conn=delta kv=13.8
~ wdg=2 bus=80552325272451.1.2.3.0 conn=wye kv=0.38

new transformer.UNTRMT_5272462 phases=3 windings=2 %r=1.68 xhl=3.07 kva=45.0
~ wdg=1 bus=80550875002410.1.2.3 conn=delta kv=13.8
~ wdg=2 bus=80550875272462.1.2.3.0 conn=wye kv=0.38

new transformer.UNTRMT_5272463 phases=3 windings=2 %r=1.46 xhl=3.18 kva=112.0
~ wdg=1 bus=80552865002410.1.2.3 conn=delta kv=13.8
~ wdg=2 bus=80552865272463.1.2.3.0 conn=wye kv=0.38

new transformer.UNTRMT_5272470 phases=3 windings=2 %r=1.55 xhl=3.14 kva=75.0
~ wdg=1 bus=80554585002410.1.2.3 conn=delta kv=13.8
~ wdg=2 bus=80554585272470.1.2.3.0 conn=wye kv=0.38

new transformer.UNTRMT_5272471 phases=3 windings=2 %r=1.68 xhl=3.07 kva=45.0
~ wdg=1 bus=80554625002410.1.2.3 conn=delta kv=13.8
~ wdg=2 bus=80554625272471.1.2.3.0 conn=wye kv=0.38

new transformer.UNTRMT_5272472 phases=3 windings=2 %r=1.55 xhl=3.14 kva=75.0
~ wdg=1 bus=80554695002410.1.2.3 conn=delta kv=13.8
~ wdg=2 bus=80554695272472.1.2.3.0 conn=wye kv=0.38

new transformer.UNTRMT_5272473 phases=3 windings=2 %r=1.55 xhl=3.14 kva=75.0
~ wdg=1 bus=80554735002410.1.2.3 conn=delta kv=13.8
~ wdg=2 bus=80554735272473.1.2.3.0 conn=wye kv=0.38

new transformer.UNTRMT_5272474 phases=3 windings=2 %r=1.78 xhl=3.01 kva=30.0
~ wdg=1 bus=80554765002410.1.2.3 conn=delta kv=13.8
~ wdg=2 bus=80554765272474.1.2.3.0 conn=wye kv=0.38

new transformer.UNTRMT_5272475 phases=3 windings=2 %r=1.55 xhl=3.14 kva=75.0
~ wdg=1 bus=80554795002410.1.2.3 conn=delta kv=13.8
~ wdg=2 bus=80554795272475.1.2.3.0 conn=wye kv=0.38

new transformer.UNTRMT_5272476 phases=3 windings=2 %r=1.46 xhl=3.18 kva=112.0
~ wdg=1 bus=80554905002410.1.2.3 conn=delta kv=13.8
~ wdg=2 bus=80554905272476.1.2.3.0 conn=wye kv=0.38

new transformer.UNTRMT_5272477 phases=3 windings=2 %r=1.55 xhl=3.14 kva=75.0
~ wdg=1 bus=80555195002410.1.2.3 conn=delta kv=13.8
~ wdg=2 bus=80555195272477.1.2.3.0 conn=wye kv=0.38

new transformer.UNTRMT_5272478 phases=3 windings=2 %r=1.39 xhl=3.21 kva=75.0
~ wdg=1 bus=80554825002410.1.2.3 conn=delta kv=13.8
~ wdg=2 bus=80554825272478.1.2.3.0 conn=wye kv=0.38

new transformer.UNTRMT_5272479 phases=3 windings=2 %r=1.46 xhl=3.18 kva=112.0
~ wdg=1 bus=80554445002410.1.2.3 conn=delta kv=13.8
~ wdg=2 bus=80554445272479.1.2.3.0 conn=wye kv=0.38

new transformer.UNTRMT_5272480 phases=3 windings=2 %r=1.55 xhl=3.14 kva=75.0
~ wdg=1 bus=80554465002410.1.2.3 conn=delta kv=13.8
~ wdg=2 bus=80554465272480.1.2.3.0 conn=wye kv=0.38

new transformer.UNTRMT_5272481 phases=3 windings=2 %r=1.46 xhl=3.18 kva=112.0
~ wdg=1 bus=80554955002410.1.2.3 conn=delta kv=13.8
~ wdg=2 bus=80554955272481.1.2.3.0 conn=wye kv=0.38

new transformer.UNTRMT_5272482 phases=3 windings=2 %r=1.39 xhl=3.21 kva=150.0
~ wdg=1 bus=80554985002410.1.2.3 conn=delta kv=13.8
~ wdg=2 bus=80554985272482.1.2.3.0 conn=wye kv=0.38

new transformer.UNTRMT_5272483 phases=3 windings=2 %r=1.55 xhl=3.14 kva=75.0
~ wdg=1 bus=80555015002410.1.2.3 conn=delta kv=13.8
~ wdg=2 bus=80555015272483.1.2.3.0 conn=wye kv=0.38

new transformer.UNTRMT_5272484 phases=3 windings=2 %r=1.46 xhl=3.18 kva=112.0
~ wdg=1 bus=80555035002410.1.2.3 conn=delta kv=13.8
~ wdg=2 bus=80555035272484.1.2.3.0 conn=wye kv=0.38

new transformer.UNTRMT_5272485 phases=3 windings=2 %r=1.55 xhl=3.14 kva=75.0
~ wdg=1 bus=80555095002410.1.2.3 conn=delta kv=13.8
~ wdg=2 bus=80555095272485.1.2.3.0 conn=wye kv=0.38

new transformer.UNTRMT_5272486 phases=3 windings=2 %r=1.46 xhl=3.18 kva=112.0
~ wdg=1 bus=80555165002410.1.2.3 conn=delta kv=13.8
~ wdg=2 bus=80555165272486.1.2.3.0 conn=wye kv=0.38

new transformer.UNTRMT_5272487 phases=3 windings=2 %r=1.68 xhl=3.07 kva=45.0
~ wdg=1 bus=80554385002410.1.2.3 conn=delta kv=13.8
~ wdg=2 bus=80554385272487.1.2.3.0 conn=wye kv=0.38

new transformer.UNTRMT_5272489 phases=3 windings=2 %r=1.55 xhl=3.14 kva=75.0
~ wdg=1 bus=80559595002410.1.2.3 conn=delta kv=13.8
~ wdg=2 bus=80559595272489.1.2.3.0 conn=wye kv=0.38

new transformer.UNTRMT_5272490 phases=3 windings=2 %r=1.68 xhl=3.07 kva=45.0
~ wdg=1 bus=80559625002410.1.2.3 conn=delta kv=13.8
~ wdg=2 bus=80559625272490.1.2.3.0 conn=wye kv=0.38

new transformer.UNTRMT_5272494 phases=3 windings=2 %r=1.55 xhl=3.14 kva=75.0
~ wdg=1 bus=80559665002410.1.2.3 conn=delta kv=13.8
~ wdg=2 bus=80559665272494.1.2.3.0 conn=wye kv=0.38

new transformer.UNTRMT_5272495 phases=3 windings=2 %r=1.68 xhl=3.07 kva=45.0
~ wdg=1 bus=80559775002410.1.2.3 conn=delta kv=13.8
~ wdg=2 bus=80559775272495.1.2.3.0 conn=wye kv=0.38

new transformer.UNTRMT_5272496 phases=3 windings=2 %r=1.55 xhl=3.14 kva=75.0
~ wdg=1 bus=93369915002410.1.2.3 conn=delta kv=13.8
~ wdg=2 bus=93369915272496.1.2.3.0 conn=wye kv=0.38

new transformer.UNTRMT_5272519 phases=3 windings=2 %r=1.55 xhl=3.14 kva=75.0
~ wdg=1 bus=80556615002410.1.2.3 conn=delta kv=13.8
~ wdg=2 bus=80556615272519.1.2.3.0 conn=wye kv=0.38

new transformer.UNTRMT_5272520 phases=3 windings=2 %r=1.46 xhl=3.18 kva=112.0
~ wdg=1 bus=80556655002410.1.2.3 conn=delta kv=13.8
~ wdg=2 bus=80556655272520.1.2.3.0 conn=wye kv=0.38

new transformer.UNTRMT_5272523 phases=3 windings=2 %r=1.46 xhl=3.18 kva=112.0
~ wdg=1 bus=80560635002410.1.2.3 conn=delta kv=13.8
~ wdg=2 bus=80560635272523.1.2.3.0 conn=wye kv=0.38

new transformer.UNTRMT_5284339 phases=3 windings=2 %r=1.55 xhl=3.14 kva=75.0
~ wdg=1 bus=81756905002410.1.2.3 conn=delta kv=13.8
~ wdg=2 bus=81756905284339.1.2.3.0 conn=wye kv=0.38

new transformer.UNTRMT_5284433 phases=3 windings=2 %r=1.68 xhl=3.07 kva=45.0
~ wdg=1 bus=81757145002410.1.2.3 conn=delta kv=13.8
~ wdg=2 bus=81757145284433.1.2.3.0 conn=wye kv=0.38

new transformer.UNTRMT_5284434 phases=3 windings=2 %r=1.46 xhl=3.18 kva=112.0
~ wdg=1 bus=81757335002410.1.2.3 conn=delta kv=13.8
~ wdg=2 bus=81757335284434.1.2.3.0 conn=wye kv=0.38

new transformer.UNTRMT_5284435 phases=3 windings=2 %r=1.46 xhl=3.18 kva=112.0
~ wdg=1 bus=81756175002410.1.2.3 conn=delta kv=13.8
~ wdg=2 bus=81756175284435.1.2.3.0 conn=wye kv=0.38

new transformer.UNTRMT_5284436 phases=3 windings=2 %r=1.39 xhl=3.21 kva=150.0
~ wdg=1 bus=81756255002410.1.2.3 conn=delta kv=13.8
~ wdg=2 bus=81756255284436.1.2.3.0 conn=wye kv=0.38

new transformer.UNTRMT_5284437 phases=3 windings=2 %r=1.46 xhl=3.18 kva=112.0
~ wdg=1 bus=81756375002410.1.2.3 conn=delta kv=13.8
~ wdg=2 bus=81756375284437.1.2.3.0 conn=wye kv=0.38

new transformer.UNTRMT_5284438 phases=3 windings=2 %r=1.46 xhl=3.18 kva=112.0
~ wdg=1 bus=81762165002410.1.2.3 conn=delta kv=13.8
~ wdg=2 bus=81762165284438.1.2.3.0 conn=wye kv=0.38

new transformer.UNTRMT_5284439 phases=3 windings=2 %r=1.55 xhl=3.14 kva=75.0
~ wdg=1 bus=81763675002410.1.2.3 conn=delta kv=13.8
~ wdg=2 bus=81763675284439.1.2.3.0 conn=wye kv=0.38

new transformer.UNTRMT_5284440 phases=3 windings=2 %r=1.46 xhl=3.18 kva=112.0
~ wdg=1 bus=81762255002410.1.2.3 conn=delta kv=13.8
~ wdg=2 bus=81762255284440.1.2.3.0 conn=wye kv=0.38

new transformer.UNTRMT_5284460 phases=3 windings=2 %r=1.46 xhl=3.18 kva=112.0
~ wdg=1 bus=81756045002410.1.2.3 conn=delta kv=13.8
~ wdg=2 bus=81756045284460.1.2.3.0 conn=wye kv=0.38

new transformer.UNTRMT_5284461 phases=3 windings=2 %r=1.46 xhl=3.18 kva=112.0
~ wdg=1 bus=81756075002410.1.2.3 conn=delta kv=13.8
~ wdg=2 bus=81756075284461.1.2.3.0 conn=wye kv=0.38

new transformer.UNTRMT_5284462 phases=3 windings=2 %r=1.46 xhl=3.18 kva=112.0
~ wdg=1 bus=81756775002410.1.2.3 conn=delta kv=13.8
~ wdg=2 bus=81756775284462.1.2.3.0 conn=wye kv=0.38

new transformer.UNTRMT_5284464 phases=3 windings=2 %r=1.55 xhl=3.14 kva=75.0
~ wdg=1 bus=81758415002410.1.2.3 conn=delta kv=13.8
~ wdg=2 bus=81758415284464.1.2.3.0 conn=wye kv=0.38

new transformer.UNTRMT_5284486 phases=3 windings=2 %r=1.55 xhl=3.14 kva=75.0
~ wdg=1 bus=81764925002410.1.2.3 conn=delta kv=13.8
~ wdg=2 bus=81764925284486.1.2.3.0 conn=wye kv=0.38

new transformer.UNTRMT_5284487 phases=3 windings=2 %r=1.55 xhl=3.14 kva=75.0
~ wdg=1 bus=81764985002410.1.2.3 conn=delta kv=13.8
~ wdg=2 bus=81764985284487.1.2.3.0 conn=wye kv=0.38

new transformer.UNTRMT_5303956 phases=3 windings=2 %r=1.46 xhl=3.18 kva=112.0
~ wdg=1 bus=83337455002410.1.2.3 conn=delta kv=13.8
~ wdg=2 bus=83337455303956.1.2.3.0 conn=wye kv=0.38

new transformer.UNTRMT_5311219 phases=3 windings=2 %r=1.55 xhl=3.14 kva=75.0
~ wdg=1 bus=80551045002410.1.2.3 conn=delta kv=13.8
~ wdg=2 bus=80551045311219.1.2.3.0 conn=wye kv=0.38

new transformer.UNTRMT_5336538 phases=3 windings=2 %r=1.25 xhl=4.32 kva=300.0
~ wdg=1 bus=83127645002410.1.2.3 conn=delta kv=13.8
~ wdg=2 bus=83127645336538.1.2.3.0 conn=wye kv=0.38

new transformer.UNTRMT_5336555 phases=3 windings=2 %r=1.25 xhl=4.32 kva=300.0
~ wdg=1 bus=83127875002410.1.2.3 conn=delta kv=13.8
~ wdg=2 bus=83127875336555.1.2.3.0 conn=wye kv=0.38

new transformer.UNTRMT_5338561 phases=3 windings=2 %r=1.39 xhl=3.21 kva=150.0
~ wdg=1 bus=85593715002410.1.2.3 conn=delta kv=13.8
~ wdg=2 bus=85593715338561.1.2.3.0 conn=wye kv=0.38

new transformer.UNTRMT_5453320 phases=3 windings=2 %r=1.55 xhl=3.14 kva=75.0
~ wdg=1 bus=87260515002410.1.2.3 conn=delta kv=13.8
~ wdg=2 bus=87260515453320.1.2.3.0 conn=wye kv=0.38

new transformer.UNTRMT_5504901 phases=3 windings=2 %r=1.46 xhl=3.18 kva=112.0
~ wdg=1 bus=88674675002410.1.2.3 conn=delta kv=13.8
~ wdg=2 bus=88674675504901.1.2.3.0 conn=wye kv=0.38

new transformer.UNTRMT_5566156 phases=3 windings=2 %r=1.55 xhl=3.14 kva=75.0
~ wdg=1 bus=93764985002410.1.2.3 conn=delta kv=13.8
~ wdg=2 bus=93764985566156.1.2.3.0 conn=wye kv=0.38

new transformer.UNTRMT_5574808 phases=3 windings=2 %r=1.25 xhl=4.32 kva=300.0
~ wdg=1 bus=93764975002410.1.2.3 conn=delta kv=13.8
~ wdg=2 bus=93764975574808.1.2.3.0 conn=wye kv=0.38

new transformer.UNTRMT_5619789 phases=3 windings=2 %r=1.3 xhl=4.31 kva=225.0
~ wdg=1 bus=92217125002410.1.2.3 conn=delta kv=13.8
~ wdg=2 bus=92217125619789.1.2.3.0 conn=wye kv=0.38

new transformer.UNTRMT_5635324 phases=3 windings=2 %r=1.25 xhl=4.32 kva=300.0
~ wdg=1 bus=92694075002410.1.2.3 conn=delta kv=13.8
~ wdg=2 bus=92694075635324.1.2.3.0 conn=wye kv=0.38

new transformer.UNTRMT_5640930 phases=3 windings=2 %r=1.46 xhl=3.18 kva=112.0
~ wdg=1 bus=80551695002410.1.2.3 conn=delta kv=13.8
~ wdg=2 bus=80551695640930.1.2.3.0 conn=wye kv=0.38

new transformer.UNTRMT_5797108 phases=3 windings=2 %r=1.25 xhl=4.32 kva=300.0
~ wdg=1 bus=98548955002410.1.2.3 conn=delta kv=13.8
~ wdg=2 bus=98548955797108.1.2.3.0 conn=wye kv=0.38

! 6. Linhas de Baixa Tensao (BT)
new line.52879538 phases=3 bus1=80473335271172.1.2.3.0 bus2=80473355271172.1.2.3.0 r1=0.613 x1=0.45 length=0.02894 units=km normamps=203.0
new line.52879539 phases=3 bus1=80473355271172.1.2.3.0 bus2=80473365271172.1.2.3.0 r1=0.613 x1=0.45 length=0.013332 units=km normamps=203.0
new line.52879540 phases=3 bus1=80473365271172.1.2.3.0 bus2=80473385271172.1.2.3.0 r1=0.613 x1=0.45 length=0.022428 units=km normamps=203.0
new line.52879541 phases=3 bus1=80473385271172.1.2.3.0 bus2=80473395271172.1.2.3.0 r1=0.613 x1=0.45 length=0.021978 units=km normamps=203.0
new line.52879576 phases=3 bus1=80472665271175.1.2.3.0 bus2=80472655271175.1.2.3.0 r1=0.613 x1=0.45 length=0.00636 units=km normamps=203.0
new line.52879578 phases=3 bus1=80472705271175.1.2.3.0 bus2=80472675271175.1.2.3.0 r1=0.613 x1=0.45 length=0.022333 units=km normamps=203.0
new line.52879579 phases=3 bus1=80472715271175.1.2.3.0 bus2=80472705271175.1.2.3.0 r1=0.613 x1=0.45 length=0.031049 units=km normamps=203.0
new line.52879580 phases=3 bus1=80472735271175.1.2.3.0 bus2=80472715271175.1.2.3.0 r1=0.613 x1=0.45 length=0.023318 units=km normamps=203.0
new line.52879582 phases=3 bus1=80474315271177.1.2.3.0 bus2=80474325271177.1.2.3.0 r1=0.613 x1=0.45 length=0.017245 units=km normamps=203.0
new line.52879585 phases=3 bus1=80474465271177.1.2.3.0 bus2=80474315271177.1.2.3.0 r1=0.613 x1=0.45 length=0.040939 units=km normamps=203.0
new line.52879586 phases=3 bus1=80474475271177.1.2.3.0 bus2=80474465271177.1.2.3.0 r1=0.613 x1=0.45 length=0.016468 units=km normamps=203.0
new line.52879587 phases=3 bus1=80474555271178.1.2.3.0 bus2=80474565271178.1.2.3.0 r1=0.62 x1=0.47 length=0.015224 units=km normamps=230.0
new line.52879597 phases=3 bus1=80474665271179.1.2.3.0 bus2=80474685271179.1.2.3.0 r1=0.613 x1=0.45 length=0.022864 units=km normamps=203.0
new line.52879598 phases=3 bus1=80474695271179.1.2.3.0 bus2=80474685271179.1.2.3.0 r1=0.984 x1=0.49 length=0.017974 units=km normamps=170.0
new line.52879599 phases=3 bus1=80474685271179.1.2.3.0 bus2=80474705271179.1.2.3.0 r1=0.613 x1=0.45 length=0.028768 units=km normamps=203.0
new line.52879728 phases=3 bus1=80473175271184.1.2.3.0 bus2=80473165271184.1.2.3.0 r1=1.551 x1=0.49 length=0.026032 units=km normamps=114.0
new line.52879729 phases=3 bus1=80473195271184.1.2.3.0 bus2=80473175271184.1.2.3.0 r1=0.506 x1=0.1 length=0.032024 units=km normamps=157.0
new line.52879730 phases=3 bus1=80473195271184.1.2.3.0 bus2=80473185271184.1.2.3.0 r1=2.389 x1=0.52 length=0.013331 units=km normamps=90.0
new line.52879731 phases=3 bus1=80473185271184.1.2.3.0 bus2=80473205271184.1.2.3.0 r1=2.389 x1=0.52 length=0.047215 units=km normamps=90.0
new line.52879733 phases=3 bus1=80473215271184.1.2.3.0 bus2=80473225271184.1.2.3.0 r1=2.389 x1=0.52 length=0.047773 units=km normamps=90.0
new line.52879734 phases=3 bus1=80473235271184.1.2.3.0 bus2=96920815271184.1.2.3.0 r1=0.506 x1=0.1 length=0.005918 units=km normamps=157.0
new line.52879737 phases=3 bus1=80474875271186.1.2.3.0 bus2=80474485271186.1.2.3.0 r1=0.613 x1=0.45 length=0.027889 units=km normamps=203.0
new line.52879739 phases=3 bus1=80474915271186.1.2.3.0 bus2=80474905271186.1.2.3.0 r1=0.975 x1=0.47 length=0.02618 units=km normamps=152.0
new line.52879741 phases=3 bus1=80474925271186.1.2.3.0 bus2=80474935271186.1.2.3.0 r1=0.975 x1=0.47 length=0.014102 units=km normamps=152.0
new line.52879742 phases=3 bus1=80474935271186.1.2.3.0 bus2=80474945271186.1.2.3.0 r1=0.975 x1=0.47 length=0.027811 units=km normamps=152.0
new line.52879744 phases=3 bus1=80474955271186.1.2.3.0 bus2=80474875271186.1.2.3.0 r1=0.613 x1=0.45 length=0.030253 units=km normamps=203.0
new line.52879746 phases=3 bus1=80474975271186.1.2.3.0 bus2=80474925271186.1.2.3.0 r1=0.975 x1=0.47 length=0.016134 units=km normamps=152.0
new line.52890732 phases=3 bus1=80550335311219.1.2.3.0 bus2=80550975311219.1.2.3.0 r1=0.975 x1=0.47 length=0.04888 units=km normamps=152.0
new line.52890734 phases=3 bus1=80551015311219.1.2.3.0 bus2=80551005311219.1.2.3.0 r1=0.613 x1=0.45 length=0.044666 units=km normamps=203.0
new line.52890736 phases=3 bus1=80551045311219.1.2.3.0 bus2=80551025311219.1.2.3.0 r1=0.613 x1=0.45 length=0.028522 units=km normamps=203.0
new line.52890737 phases=3 bus1=80551055311219.1.2.3.0 bus2=80551045311219.1.2.3.0 r1=0.613 x1=0.45 length=0.024574 units=km normamps=203.0
...